---- qbsp / ericw-tools 2.0.0-alpha10 ----

--- Options Summary ---
    "forcegoodtree" was set to "1" (from command line)

Input file: /home/kai/projects/disruptor/./resources/maps/06/test06.map
Output file: /home/kai/projects/disruptor/./resources/maps/06/test06.bsp

INFO: using built-in palette.
WARNING: No wad or _wad key exists in the worldmodel
       32 entities
       12 unique textures
      662 texinfos
    1,010 unique planes

INFO: world extents calculated to 4168 units
      884 brushes
    5,269 sides
      149 side bevels

            0 texture frames added
WARNING: unable to find texture skip
WARNING: unable to find texture conc_strange
WARNING: unable to find texture ft_broken01_c
WARNING: unable to find texture wall_stone03_c
WARNING: unable to find texture conc_slabs01_c
WARNING: unable to find texture metal_00
WARNING: unable to find texture mtl01_c
WARNING: unable to find texture metal_01
WARNING: unable to find texture ft_conc01_c
WARNING: unable to find texture tiles_01
WARNING: unable to find texture mtl_trim01_c
WARNING: unable to find texture Transparent
Processing hull 0...
    884 SOLID brushes
    884 brushes total
    5,269 visible sides
INFO: calculating BSP for 884 brushes with 5269 sides
      884 brushes
    5,269 visible faces
    2,696 nodes
    2,696 expensive split nodes
    2,697 leaves
    1,268 SOLID leafs
    1,429 EMPTY leafs
    2,697 leafs total
    21 max tree height
    14 avg tree height
    13,109 tree portals
    363 outside leaves
    0 detail filled leafs
      884 brushes
    2,818 visible faces
    2,451 non-visible faces
    2,997 nodes
      684 non-visible nodes
    2,997 expensive split nodes
    2,998 leaves
    1,439 SOLID leafs
    1,559 EMPTY leafs
    2,998 leafs total
    21 max tree height
    14 avg tree height
    14,365 tree portals
    502 outside leaves
    0 detail filled leafs
    14,365 tree portals
    10,588 sides visible
    5,294 makefaces
    1,148 merged
    1,095 subdivided
    795 nodes pruned
    1,057 player-occupiable leaves
    1,057 clusters of leaves
    2,420 vis portals
    1,057 EMPTY leafs
    1,146 SOLID leafs
    2,203 leafs total
    20 max tree height
    14 avg tree height
     4,935 edges added by tjunctions
     5,190 faces optimized through MWT
    15,329 triangles computed from MWT
     1,271 faces created via optimization of MWT triangles
    14,337 edges
     6,512 faces
Processing hull 1...
Processing hull 2...
Writing ./resources/maps/06/test06.bsp as Quake BSP bsp29
Wrote ./resources/maps/06/test06.bsp

count   lump name    byte size 
      1 models               64
    702 planes            14040
   7180 vertexes          86160
   2202 nodes             52848
    445 texinfos          17800
   6512 faces            130240
   4933 clipnodes         39464
   1058 leafs             29624
   7864 marksurfaces      15728
  14338 edges             57352
  28404 surfedges        113616
     12 textures             52
        lightdata             0
        visdata               0
        entdata            2457

1.240s seconds elapsed


