---- qbsp / ericw-tools 2.0.0-alpha10 ----

--- Options Summary ---

Input file: /home/kai/projects/disruptor/./resources/maps/06/test06.map
Output file: /home/kai/projects/disruptor/./resources/maps/06/test06.bsp

INFO: using built-in palette.
WARNING: No wad or _wad key exists in the worldmodel
     10 entities
     10 unique textures
    269 texinfos
    436 unique planes

INFO: world extents calculated to 4168 units
      254 brushes
    1,534 sides
       40 side bevels

            0 texture frames added
WARNING: unable to find texture skip
WARNING: unable to find texture conc_strange
WARNING: unable to find texture metal_01
WARNING: unable to find texture conc_slabs01_c
WARNING: unable to find texture mtl01_c
WARNING: unable to find texture 02intonacopr_nt3.jpg.preview
WARNING: texture 02intonacopr_nt3.jpg.preview name too long for Quake miptex
WARNING: unable to find texture metal_00
WARNING: unable to find texture mtl_trim01_c
WARNING: unable to find texture ft_conc01_c
WARNING: unable to find texture tiles_diffuse
Processing hull 0...
    254 SOLID brushes
    254 brushes total
    1,534 visible sides
INFO: calculating BSP for 254 brushes with 1534 sides
      254 brushes
    1,534 visible faces
    2,475 nodes
    1,870 expensive split nodes
      605 mid-split nodes
    2,476 leaves
    1,168 SOLID leafs
    1,308 EMPTY leafs
    2,476 leafs total
    19 max tree height
    14 avg tree height
    9,840 tree portals
    764 outside leaves
    0 detail filled leafs
    254 brushes
    571 visible faces
    963 non-visible faces
    884 nodes
    421 non-visible nodes
    884 expensive split nodes
    885 leaves
    428 SOLID leafs
    457 EMPTY leafs
    885 leafs total
    16 max tree height
    12 avg tree height
    4,044 tree portals
    279 outside leaves
    0 detail filled leafs
    4,044 tree portals
    1,992 sides visible
    996 makefaces
    143 merged
    600 subdivided
    449 nodes pruned
    178 player-occupiable leaves
    178 clusters of leaves
    344 vis portals
    178 EMPTY leafs
    258 SOLID leafs
    436 leafs total
    16 max tree height
    11 avg tree height
    1,160 edges added by tjunctions
    1,420 faces optimized through MWT
    4,011 triangles computed from MWT
      265 faces created via optimization of MWT triangles
    3,740 edges
    1,718 faces
Processing hull 1...
Processing hull 2...
Writing ./resources/maps/06/test06.bsp as Quake BSP bsp29
Wrote ./resources/maps/06/test06.bsp

count   lump name    byte size 
      1 models               64
    344 planes             6880
   1968 vertexes          23616
    435 nodes             10440
    166 texinfos           6640
   1718 faces             34360
   1258 clipnodes         10064
    179 leafs              5012
   1897 marksurfaces       3794
   3741 edges             14964
   7480 surfedges         29920
     10 textures             44
        lightdata             0
        visdata               0
        entdata             593

0.244s seconds elapsed


