---- qbsp / ericw-tools 2.0.0-alpha10 ----

--- Options Summary ---
    "forcegoodtree" was set to "1" (from command line)

Input file: /home/kai/projects/disruptor/./resources/maps/06/test06.map
Output file: /home/kai/projects/disruptor/./resources/maps/06/test06.bsp

INFO: using built-in palette.
       32 entities
       11 unique textures
      726 texinfos
    1,096 unique planes

INFO: world extents calculated to 4168 units
      912 brushes
    5,437 sides
      149 side bevels

            0 texture frames added
WARNING: unable to find texture metal01
Processing hull 0...
    912 SOLID brushes
    912 brushes total
    5,437 visible sides
INFO: calculating BSP for 912 brushes with 5437 sides
      912 brushes
    5,437 visible faces
    2,777 nodes
    2,777 expensive split nodes
    2,778 leaves
    1,296 SOLID leafs
    1,482 EMPTY leafs
    2,778 leafs total
    21 max tree height
    14 avg tree height
    13,527 tree portals
    363 outside leaves
    0 detail filled leafs
      912 brushes
    2,953 visible faces
    2,484 non-visible faces
    3,119 nodes
      709 non-visible nodes
    3,119 expensive split nodes
    3,120 leaves
    1,470 SOLID leafs
    1,650 EMPTY leafs
    3,120 leafs total
    22 max tree height
    14 avg tree height
    14,989 tree portals
    541 outside leaves
    0 detail filled leafs
    14,989 tree portals
    11,168 sides visible
    5,584 makefaces
    1,180 merged
    1,029 subdivided
    805 nodes pruned
    1,109 player-occupiable leaves
    1,109 clusters of leaves
    2,518 vis portals
    1,109 EMPTY leafs
    1,206 SOLID leafs
    2,315 leafs total
    22 max tree height
    14 avg tree height
     5,160 edges added by tjunctions
     5,380 faces optimized through MWT
    15,935 triangles computed from MWT
     1,286 faces created via optimization of MWT triangles
    14,835 edges
     6,719 faces
Processing hull 1...
Processing hull 2...
Writing ./resources/maps/06/test06.bsp as Quake BSP bsp29
Wrote ./resources/maps/06/test06.bsp

count   lump name    byte size 
      1 models               64
    722 planes            14440
   7427 vertexes          89124
   2314 nodes             55536
    488 texinfos          19520
   6719 faces            134380
   5000 clipnodes         40000
   1110 leafs             31080
   8159 marksurfaces      16318
  14836 edges             59344
  29426 surfedges        117704
     11 textures         497768
        lightdata             0
        visdata               0
        entdata            2523

1.223s seconds elapsed


