---- qbsp / ericw-tools 2.0.0-alpha10 ----

--- Options Summary ---
    "forcegoodtree" was set to "1" (from command line)
    "maxnodesize" was set to "0" (from command line)
    "wrbrushes" was set to "1" (from command line)

Input file: /home/kai/projects/disruptor/./resources/maps/06/test06.map
Output file: /home/kai/projects/disruptor/./resources/maps/06/test06.bsp

INFO: using built-in palette.
WARNING: No wad or _wad key exists in the worldmodel
      5 entities
     11 unique textures
    168 texinfos
    330 unique planes

INFO: world extents calculated to 4168 units
      182 brushes
    1,103 sides
        9 side bevels

            0 texture frames added
WARNING: unable to find texture skip
WARNING: unable to find texture conc_strange
WARNING: unable to find texture metal_01
WARNING: unable to find texture conc_slabs01_c
WARNING: unable to find texture mtl01_c
WARNING: unable to find texture 02intonacopr_nt3.jpg.preview
WARNING: texture 02intonacopr_nt3.jpg.preview name too long for Quake miptex
WARNING: unable to find texture metal_00
WARNING: unable to find texture mtl_trim01_c
WARNING: unable to find texture ft_conc01_c
WARNING: unable to find texture wall_stone03_c
WARNING: unable to find texture tiles_diffuse
Processing hull 0...
    182 SOLID brushes
    182 brushes total
    1,103 visible sides
INFO: calculating BSP for 182 brushes with 1103 sides
      182 brushes
    1,103 visible faces
    511 nodes
    511 expensive split nodes
    512 leaves
    236 SOLID leafs
    276 EMPTY leafs
    512 leafs total
    17 max tree height
    12 avg tree height
    2,462 tree portals
    135 outside leaves
    0 detail filled leafs
    182 brushes
    408 visible faces
    695 non-visible faces
    576 nodes
    243 non-visible nodes
    576 expensive split nodes
    577 leaves
    276 SOLID leafs
    301 EMPTY leafs
    577 leafs total
    17 max tree height
    12 avg tree height
    2,695 tree portals
    170 outside leaves
    0 detail filled leafs
    2,695 tree portals
    1,442 sides visible
    721 makefaces
    106 merged
    492 subdivided
    258 nodes pruned
    131 player-occupiable leaves
    131 clusters of leaves
    228 vis portals
    131 EMPTY leafs
    188 SOLID leafs
    319 leafs total
    17 max tree height
    12 avg tree height
      931 edges added by tjunctions
    1,087 faces optimized through MWT
    3,108 triangles computed from MWT
      193 faces created via optimization of MWT triangles
    2,864 edges
    1,300 faces
Processing hull 1...
Processing hull 2...
Writing ./resources/maps/06/test06.bsp as Quake BSP bsp29
Wrote ./resources/maps/06/test06.bsp

count   lump name    byte size 
      1 models               64
    268 planes             5360
   1514 vertexes          18168
    318 nodes              7632
     91 texinfos           3640
   1300 faces             26000
    903 clipnodes          7224
    132 leafs              3696
   1451 marksurfaces       2902
   2865 edges             11460
   5728 surfedges         22912
     11 textures             48
        lightdata             0
        visdata               0
        entdata             265

BSPX lump name   byte size 
BRUSHLIST              5432

0.159s seconds elapsed


