---- qbsp / ericw-tools 2.0.0-alpha10 ----

--- Options Summary ---

Input file: /home/kai/projects/disruptor/./resources/maps/06/test06.map
Output file: /home/kai/projects/disruptor/./resources/maps/06/test06.bsp

INFO: using built-in palette.
WARNING: No wad or _wad key exists in the worldmodel
      8 entities
     11 unique textures
    213 texinfos
    406 unique planes

INFO: world extents calculated to 4168 units
      223 brushes
    1,349 sides
       43 side bevels

            0 texture frames added
WARNING: unable to find texture skip
WARNING: unable to find texture conc_strange
WARNING: unable to find texture metal_01
WARNING: unable to find texture conc_slabs01_c
WARNING: unable to find texture mtl01_c
WARNING: unable to find texture 02intonacopr_nt3.jpg.preview
WARNING: texture 02intonacopr_nt3.jpg.preview name too long for Quake miptex
WARNING: unable to find texture metal_00
WARNING: unable to find texture mtl_trim01_c
WARNING: unable to find texture ft_conc01_c
WARNING: unable to find texture wall_stone03_c
WARNING: unable to find texture tiles_diffuse
Processing hull 0...
    223 SOLID brushes
    223 brushes total
    1,349 visible sides
INFO: calculating BSP for 223 brushes with 1349 sides
      223 brushes
    1,349 visible faces
    2,387 nodes
    1,793 expensive split nodes
      594 mid-split nodes
    2,388 leaves
    1,121 SOLID leafs
    1,267 EMPTY leafs
    2,388 leafs total
    19 max tree height
    14 avg tree height
    9,441 tree portals
    750 outside leaves
    0 detail filled leafs
    223 brushes
    482 visible faces
    867 non-visible faces
    768 nodes
    378 non-visible nodes
    768 expensive split nodes
    769 leaves
    372 SOLID leafs
    397 EMPTY leafs
    769 leafs total
    17 max tree height
    12 avg tree height
    3,535 tree portals
    255 outside leaves
    0 detail filled leafs
    3,535 tree portals
    1,660 sides visible
    830 makefaces
    125 merged
    615 subdivided
    401 nodes pruned
    142 player-occupiable leaves
    142 clusters of leaves
    243 vis portals
    142 EMPTY leafs
    226 SOLID leafs
    368 leafs total
    17 max tree height
    12 avg tree height
    1,084 edges added by tjunctions
    1,287 faces optimized through MWT
    3,667 triangles computed from MWT
      244 faces created via optimization of MWT triangles
    3,414 edges
    1,564 faces
Processing hull 1...
Processing hull 2...
Writing ./resources/maps/06/test06.bsp as Quake BSP bsp29
Wrote ./resources/maps/06/test06.bsp

count   lump name    byte size 
      1 models               64
    331 planes             6620
   1796 vertexes          21552
    367 nodes              8808
    110 texinfos           4400
   1564 faces             31280
   1033 clipnodes          8264
    143 leafs              4004
   1725 marksurfaces       3450
   3415 edges             13660
   6828 surfedges         27312
     11 textures             48
        lightdata             0
        visdata               0
        entdata             491

0.213s seconds elapsed


