---- qbsp / ericw-tools 2.0.0-alpha10 ----

--- Options Summary ---

Input file: /home/kai/projects/disruptor/resources/maps/666/./test666.map
Output file: /home/kai/projects/disruptor/resources/maps/666/..bsp

INFO: using built-in palette.
WARNING: No wad or _wad key exists in the worldmodel
     2 entities
     3 unique textures
    22 texinfos
    34 unique planes

INFO: world extents calculated to 1320 units
    15 brushes
    90 sides

            0 texture frames added
WARNING: unable to find texture skip
WARNING: unable to find texture conc_strange
WARNING: unable to find texture MulticolorBrickWallB_T
WARNING: texture MulticolorBrickWallB_T name too long for Quake miptex
Processing hull 0...
    15 SOLID brushes
    15 brushes total
    90 visible sides
INFO: calculating BSP for 15 brushes with 90 sides
    15 brushes
    90 visible faces
    40 nodes
    40 expensive split nodes
    41 leaves
    15 SOLID leafs
    26 EMPTY leafs
    41 leafs total
    9 max tree height
    7 avg tree height
    192 tree portals
    24 outside leaves
    0 detail filled leafs
    15 brushes
    16 visible faces
    74 non-visible faces
    40 nodes
    32 non-visible nodes
    40 expensive split nodes
    41 leaves
    15 SOLID leafs
    26 EMPTY leafs
    41 leafs total
    9 max tree height
    7 avg tree height
    192 tree portals
    24 outside leaves
    0 detail filled leafs
    192 tree portals
    32 sides visible
    16 makefaces
     5 merged
     8 subdivided
    32 nodes pruned
    2 player-occupiable leaves
    2 clusters of leaves
    1 vis portals
    2 EMPTY leafs
    7 SOLID leafs
    9 leafs total
    7 max tree height
    5 avg tree height
    22 edges added by tjunctions
    19 faces optimized through MWT
    60 triangles computed from MWT
     9 faces created via optimization of MWT triangles
    58 edges
    28 faces
Processing hull 1...
Processing hull 2...
WARNING: No entities in empty space -- no filling performed (hull 2)
Writing ..bsp as Quake BSP bsp29
Wrote ..bsp

count   lump name    byte size 
      1 models               64
     41 planes              820
     32 vertexes            384
      8 nodes               192
      5 texinfos            200
     28 faces               560
    265 clipnodes          2120
      3 leafs                84
     31 marksurfaces         62
     59 edges               236
    116 surfedges           464
      3 textures             16
        lightdata             0
        visdata               0
        entdata              86

0.010s seconds elapsed


