---- qbsp / ericw-tools 2.0.0-alpha10 ----

--- Options Summary ---

Input file: /home/kai/projects/disruptor/./resources/maps/666/test666.map
Output file: /home/kai/projects/disruptor/./resources/maps/666/test666.bsp

INFO: using built-in palette.
WARNING: No wad or _wad key exists in the worldmodel
     2 entities
     6 unique textures
    53 texinfos
    74 unique planes

INFO: world extents calculated to 2792 units
     34 brushes
    206 sides
      1 side bevels

            0 texture frames added
WARNING: unable to find texture skip
WARNING: unable to find texture conc_strange
WARNING: unable to find texture conc_slabs01_c
WARNING: unable to find texture metal_01
WARNING: unable to find texture wall_stone03_c
WARNING: unable to find texture tiles_01
Processing hull 0...
    34 SOLID brushes
    34 brushes total
    206 visible sides
INFO: calculating BSP for 34 brushes with 206 sides
     34 brushes
    206 visible faces
    122 nodes
    119 expensive split nodes
      3 mid-split nodes
    123 leaves
     53 SOLID leafs
     70 EMPTY leafs
    123 leafs total
    13 max tree height
     9 avg tree height
    534 tree portals
    41 outside leaves
    0 detail filled leafs
     34 brushes
     92 visible faces
    114 non-visible faces
    133 nodes
     67 non-visible nodes
    133 expensive split nodes
    134 leaves
     53 SOLID leafs
     81 EMPTY leafs
    134 leafs total
    12 max tree height
     9 avg tree height
    599 tree portals
    55 outside leaves
    0 detail filled leafs
    599 tree portals
    292 sides visible
      146 makefaces
       27 merged
    1,771 subdivided
    67 nodes pruned
    26 player-occupiable leaves
    26 clusters of leaves
    64 vis portals
    26 EMPTY leafs
    41 SOLID leafs
    67 leafs total
    12 max tree height
     8 avg tree height
      460 edges added by tjunctions
    1,888 faces optimized through MWT
    4,236 triangles computed from MWT
      119 faces created via optimization of MWT triangles
    4,128 edges
    2,009 faces
Processing hull 1...
Processing hull 2...
Writing ./resources/maps/666/test666.bsp as Quake BSP bsp29
Wrote ./resources/maps/666/test666.bsp

count   lump name    byte size 
      1 models               64
     78 planes             1560
   2107 vertexes          25284
     66 nodes              1584
     31 texinfos           1240
   2009 faces             40180
    146 clipnodes          1168
     27 leafs               756
   2016 marksurfaces       4032
   4129 edges             16516
   8256 surfedges         33024
      6 textures             28
        lightdata             0
        visdata               0
        entdata             111

0.047s seconds elapsed


